scripts/data/matpower/EMG/emg_base.m
%% MATPOWER Case Format : Version 2
function mpc = emg_base
mpc.version = '2';

%%-----  Power Flow Data  -----%%
%% system MVA base
mpc.baseMVA = 100.0;
%% bus data
%    bus_i    type    Pd    Qd    Gs    Bs    area    Vm    Va    baseKV    zone    Vmax    Vmin
mpc.bus = [
	245	3	0.0	0.0	0.0	0.0	11	1.0	0.0	138.0	1	1.05	0.95				
	1704	3	0.0	0.0	0.0	0.0	13	1.001	0.115	69.0	1	1.05	0.95				
	1707	1	0.0	0.0	0.0	0.0	2	0.997	-0.12	69.0	1	1.05	0.95				
	1708	1	1.7920000000000003	0.7667	0.0	0.0	35	1.0	-3.1	11.4	1	1.03	1.026				
	3110	2	0.0	0.0	0.0	0.0	3	0.95	2.2	6.6	1	1.05	0.9				
	3115	1	0.0	0.0	0.0	0.0	3	0.897	-2.1	6.6	1	1.05	0.9				
	3120	2	0.0	0.0	0.0	0.0	10	0.95	-0.6	6.6	1	1.05	0.9				
	3124	2	16.83	1.6200000000000003	0.0	0.0	3	1.0	-13.0	11.4	1	1.03	1.026				
	3138	1	0.0	0.0	0.0	0.0	2	0.897	-6.2	69.0	1	1.05	0.95				
	3139	1	6.868	1.986	0.0	0.0	3	1.0	-11.0	11.4	1	1.03	1.026				
	3140	2	0.0	0.0	0.0	0.0	10	1.01	-3.6	2.2	1	1.05	0.9				
	3141	2	0.0	0.0	0.0	0.0	10	0.894	-0.62	6.6	1	1.05	0.9				
	3142	2	0.0	0.0	0.0	0.0	10	1.05	-4.3	6.9	1	1.05	0.9				
	3143	1	2.602	1.123	0.0	0.0	3	1.0	-7.9	11.4	1	1.05	0.9				
	3145	1	0.0	0.0	0.0	0.0	10	0.913	-5.8	2.2	1	1.05	0.9				
	3146	2	0.0	0.0	0.0	0.0	14	1.0	-2.2	3.3	1	1.05	0.9				
	3147	1	0.0	0.0	0.0	0.0	2	0.959	-7.0	69.0	1	1.05	0.95				
	3148	2	0.0	0.0	0.0	0.0	14	1.0	-2.1	3.3	1	1.05	0.9				
	3151	2	0.0	0.0	0.0	0.0	14	1.0	-1.1	6.9	1	1.05	0.9				
	3152	1	0.0	0.0	0.0	0.0	1	0.986	-2.9	138.0	1	1.05	0.95				
	3164	1	0.0	0.0	0.0	0.0	2	0.848	-7.2	69.0	1	1.05	0.95				
	3165	1	0.0	0.0	0.0	0.0	3	0.819	-7.9	2.2	1	1.05	0.9				
	3166	2	0.0	0.0	0.0	0.0	3	1.04	-7.9	6.9	1	1.05	0.9				
	3167	1	0.0	0.0	0.0	0.0	3	0.905	-7.9	0.4	1	1.05	0.9				
	3186	2	0.0	0.0	0.0	0.0	14	1.02	13.0	6.9	1	1.05	0.9				
	3187	2	0.0	0.0	0.0	0.0	10	1.02	-4.3	6.9	1	1.05	0.9				
	3188	2	0.0	0.0	0.0	0.0	14	1.05	-0.69	6.9	1	1.05	0.9				
	3189	2	0.0	0.0	0.0	0.0	14	1.0	-1.2	6.9	1	1.05	0.9				
	3190	2	0.0	0.0	0.0	0.0	14	1.0	-2.0	13.8	1	1.05	0.9				
	3191	2	0.0	0.0	0.0	0.0	14	1.0	-1.4	6.9	1	1.05	0.9				
	3201	1	10.87	3.47	0.0	0.0	3	1.0	-13.0	11.4	1	1.001	0.99				
	3210	1	12.45	1.474	0.0	0.0	3	1.0	-9.200000000000001	11.4	1	1.03	1.026				
	3240	2	3.6379999999999995	1.213	0.0	0.0	3	1.0	-2.1	24.0	1	0.96	0.94				
	3251	1	4.756	1.599	0.0	0.0	22	1.0	-8.7	22.0	1	1.05	0.9				
	3252	1	0.0	0.0	0.0	0.0	2	0.984	-6.3	69.0	1	1.05	0.9				
	3262	1	0.0	0.0	0.0	0.0	2	0.98	-6.4	69.0	1	1.05	0.95				
	3263	1	4.024	1.976	0.0	0.0	3	1.0	-11.0	11.4	1	1.03	1.026				
	3270	1	12.960000000000003	0.7213	0.0	0.0	22	1.0	-5.4	22.0	1	1.028	1.026				
	3290	1	6.387	0.439	0.0	0.0	22	1.0	-7.6	22.0	1	1.028	1.026				
	3300	1	0.0	0.0	0.0	0.0	11	1.0	0.0	138.0	1	1.05	0.95				
	3301	1	0.0	0.0	0.0	0.0	1	0.979	-2.4	138.0	1	1.05	0.95				
	3302	1	0.0	0.0	0.0	0.0	19	0.996	-5.1	69.0	1	1.05	0.95				
	3303	1	0.0	0.0	0.0	0.0	1	0.977	-2.9	138.0	1	1.05	0.95				
	3304	1	0.0	0.0	0.0	0.0	19	0.947	-4.4	69.0	1	1.05	0.95				
	3305	1	0.0	0.0	0.0	0.0	1	0.975	-3.0000000000000004	138.0	1	1.05	0.95				
	3306	1	2.215	3.4230000000000005	0.0	0.0	19	1.014	-5.2	69.0	1	1.05	0.95				
	3307	1	0.0	0.0	0.0	0.0	1	0.967	-4.1	138.0	1	1.05	0.95				
	3308	1	0.0	0.0	0.0	0.0	19	1.014	-6.2	69.0	1	1.05	0.95				
	3309	1	0.0	0.0	0.0	0.0	2	0.99	-6.9	69.0	1	1.05	0.95				
	3310	1	0.0	0.0	0.0	0.0	1	0.97	-4.0	138.0	1	1.05	0.95				
	3311	1	0.0	0.0	0.0	0.0	19	1.0	-5.4	69.0	1	1.05	0.95				
	3312	1	0.0	0.0	0.0	0.0	2	1.0	-5.7	69.0	1	1.05	0.95				
	3313	1	0.0	0.0	0.0	0.0	1	0.967	-2.9	138.0	1	1.05	0.95				
	3314	1	0.0	0.0	0.0	0.0	19	0.977	-6.000000000000001	69.0	1	1.05	0.95				
	3315	1	0.0	0.0	0.0	0.0	2	0.976	-6.1	69.0	1	1.05	0.95				
	3316	1	0.0	0.0	0.0	0.0	2	0.962	-5.4	69.0	1	1.05	0.95				
	3317	1	0.0	0.0	0.0	0.0	1	0.97	-4.2	138.0	1	1.05	0.95				
	3318	1	3.46	0.0	0.0	0.0	7	1.008	-5.5	69.0	1	1.05	0.95				
	3319	1	0.0	0.0	0.0	0.0	19	0.952	-4.5	69.0	1	1.05	0.95				
	3320	1	0.0	0.0	0.0	0.0	2	0.89	6.08	69.0	1	1.05	0.95				
	3321	1	0.0	0.0	0.0	0.0	1	1.024	11.300000000000002	138.0	1	1.05	0.95				
	3322	1	0.0	0.0	0.0	0.0	19	1.0	7.640000000000001	69.0	1	1.05	0.95				
	3323	1	0.0	0.0	0.0	0.0	1	1.025	11.4	138.0	1	1.05	0.95				
	3324	1	0.0	0.0	0.0	0.0	2	0.991	-1.9	69.0	1	1.05	0.95				
	3325	1	0.0	0.0	0.0	0.0	2	0.99	-6.3	69.0	1	1.05	0.95				
	3326	1	0.0	0.0	0.0	0.0	2	0.958	-7.400000000000001	69.0	1	1.05	0.95				
	3327	1	0.0	0.0	0.0	0.0	2	1.018	-6.000000000000001	69.0	1	1.05	0.95				
	3328	1	0.0	0.0	0.0	0.0	2	0.963	-6.8	69.0	1	1.05	0.95				
	3329	1	0.0	0.0	0.0	0.0	1	0.983	2.6	138.0	1	1.05	0.95				
	3330	1	0.0	0.0	0.0	0.0	1	0.979	-4.3	138.0	1	1.05	0.95				
	3331	1	0.0	0.0	0.0	0.0	2	0.901	-6.5	69.0	1	1.05	0.95				
	3332	1	0.0	0.0	0.0	0.0	1	0.972	-4.4	138.0	1	1.05	0.95				
	3333	1	0.0	0.0	0.0	0.0	1	0.983	-3.1	138.0	1	1.05	0.95				
	3334	1	0.0	0.0	0.0	0.0	2	0.912	-5.7	69.0	1	1.05	0.95				
	3335	1	0.0	0.0	0.0	0.0	2	0.903	-6.000000000000001	69.0	1	1.05	0.95				
	3336	1	0.0	0.0	0.0	0.0	2	0.997	-5.8	69.0	1	1.05	0.95				
	3337	1	0.0	0.0	0.0	0.0	1	0.976	-3.3	138.0	1	1.05	0.95				
	3338	1	0.0	0.0	0.0	0.0	21	1.027	11.4	138.0	1	1.05	0.95				
	3339	1	0.0	0.0	0.0	0.0	1	0.985	-3.0000000000000004	138.0	1	1.05	0.95				
	3340	1	11.3	2.404	0.0	0.0	3	1.0	-9.9	11.4	1	1.03	1.026				
	3341	1	0.0	0.0	0.0	0.0	2	1.014	-7.2	69.0	1	1.05	0.95				
	3342	1	0.0	0.0	0.0	0.0	1	0.976	-3.6	138.0	1	1.05	0.95				
	3343	1	12.17	0.6899	0.0	0.0	22	1.0	5.87	11.4	1	1.05	0.95				
	3345	2	0.0	0.0	0.0	0.0	21	1.027	11.4	138.0	1	1.05	0.95				
	3346	1	4.202	0.0	0.0	4.0	3	1.0	-11.0	11.4	1	1.03	1.026				
	3348	1	0.0	0.0	0.0	0.0	2	0.995	-5.9	69.0	1	1.05	0.9				
	3349	1	0.0	0.0	0.0	0.0	1	1.02	10.600000000000001	138.0	1	1.05	0.9				
	3350	1	0.0	0.0	0.0	0.0	2	1.05	-6.000000000000001	69.0	1	1.05	0.95				
	3355	1	0.8884999999999998	0.8675999999999999	0.0	0.0	3	1.0	-6.7	11.4	1	1.03	1.026				
	3370	1	8.749	-1.05	0.0	4.0	3	1.0	-8.1	11.4	1	1.03	1.026				
	3380	1	0.0	0.0	0.0	0.0	1	0.976	-3.0000000000000004	138.0	1	1.05	0.9				
	3381	1	0.0	0.0	0.0	0.0	2	1.015	-6.2	69.0	1	1.05	0.9				
	3390	1	17.37	-2.09	0.0	5.0	22	1.0	-7.2	11.4	1	1.03	1.026				
	3391	1	7.411	1.411	0.0	0.0	3	1.0	-6.8	11.4	1	1.03	1.026				
	3392	1	0.0	0.0	0.0	0.0	2	0.986	-6.3	69.0	1	1.05	0.95				
	3393	1	5.425	0.2822	0.0	0.0	3	1.0	-9.9	11.4	1	1.05	0.95				
	3394	1	0.4808	0.5227	0.0	0.0	9	1.025	11.300000000000002	138.0	1	1.05	0.9				
	3401	2	0.0	0.0	0.0	0.0	3	0.965	-2.4	25.0	1	0.98	0.95				
	3410	1	5.843	0.3554	0.0	0.0	3	1.0	-10.0	11.4	1	1.03	1.026				
	3430	1	10.29	0.3659	0.0	0.0	3	1.0	-10.0	11.4	1	1.001	0.99				
	3432	1	7.579	3.585	0.0	0.0	3	1.0	-10.0	11.4	1	1.03	1.026				
	3434	1	2.885	1.38	0.0	0.0	3	1.0	-9.7	11.4	1	0.99	0.97				
	3450	1	6.188	0.1463	0.0	0.0	3	1.0	-11.0	11.4	1	1.03	1.026				
	3470	1	2.509	1.045	0.0	0.0	3	0.963	-5.8	22.0	1	1.028	1.026				
	3480	1	7.025	3.021	0.0	0.0	3	1.0	-9.5	11.4	1	1.03	1.026				
	3500	1	2.592	0.5958	0.0	0.0	3	1.0	-10.0	11.4	1	1.03	1.026				
	3510	1	8.697	3.502	0.0	0.0	2	0.953	-8.7	69.0	1	1.05	0.95				
	3511	1	3.1460000000000004	0.0	0.0	3.6000000000000005	22	1.0	-11.0	24.0	1	1.05	0.95				
	3530	1	8.498	0.8781000000000001	0.0	0.0	3	1.0	-12.000000000000002	11.4	1	1.03	1.026				
	3560	1	0.0	0.0	0.0	0.0	2	0.891	-7.1	69.0	1	1.05	0.95				
	3570	1	4.819	0.0209	0.0	0.0	3	1.0	-11.0	11.4	1	0.98	0.97				
	3600	1	0.0	0.0	0.0	0.0	1	0.987	-2.9	138.0	1	1.05	0.95				
	3645	1	8.519	0.0418	0.0	0.0	22	1.0	-8.2	11.4	1	1.001	0.99				
	3730	1	13.61	1.516	0.0	0.0	3	1.0	-9.4	11.4	1	1.03	1.026				
	3731	2	0.0	0.0	0.0	0.0	10	1.03	-3.1	6.9	1	1.05	0.9				
	3732	1	0.0	0.0	0.0	0.0	2	0.943	-4.7	69.0	1	1.05	0.95				
	3750	1	0.0	0.0	0.0	0.0	2	0.931	-5.5	69.0	1	1.05	0.95				
	3762	1	0.0	0.0	0.0	0.0	2	0.94	7.36	69.0	1	1.05	0.95				
	3763	1	7.16	3.167	0.0	0.0	3	1.0	1.11	11.4	1	1.03	1.026				
	3770	1	9.816	0.7631	0.0	0.0	3	1.0	-10.0	11.4	1	1.03	1.026				
	3780	1	3.094	-2.09	0.0	0.0	3	1.0	6.16	11.4	1	1.03	1.026				
	3790	1	0.0	0.0	0.0	0.0	2	0.85	-7.2	69.0	1	1.05	0.95				
	3840	1	0.9825999999999999	0.3345	0.0	0.0	3	1.0	-7.9	22.0	1	1.028	1.026				
	3950	1	15.299999999999999	4.537	0.0	0.0	3	1.0	-2.4	11.4	1	1.03	1.026				
	3970	1	0.0	0.0	0.0	0.0	1	1.026	11.6	138.0	1	1.05	0.95				
	4001	2	0.0	0.0	0.0	0.0	14	1.0	13.8	6.9	1	1.05	0.9				
	4020	1	0.2613	0.0	0.0	0.0	6	0.968	-3.6	138.0	1	1.05	0.9				
	4030	1	6.115	0.3763	0.0	0.0	3	1.0	-12.000000000000002	11.8	1	1.001	0.99				
	4051	2	0.0	0.0	0.0	0.0	10	1.02	-6.6	6.9	1	1.05	0.9				
	4053	1	6.491	0.11499999999999999	0.0	0.0	22	1.0	-3.4	11.4	1	0.99	0.97				
	4100	2	0.21960000000000002	0.0	0.0	0.0	14	0.951	-4.3	13.8	1	1.05	0.95				
	4101	1	0.0	0.0	0.0	0.0	1	0.98	-4.3	138.0	1	1.05	0.95				
	4600	1	8.007	0.345	0.0	0.0	3	1.0	-5.6	11.4	1	1.03	1.026				
	4652	1	0.0	0.0	0.0	0.0	2	0.978	-7.1	69.0	1	1.05	0.95				
	4653	1	0.0	0.0	0.0	0.0	2	0.947	-4.4	69.0	1	1.05	0.95				
	4654	1	0.0	0.0	0.0	0.0	2	0.903	-6.000000000000001	69.0	1	1.05	0.95				
	4655	1	0.0	0.0	0.0	0.0	2	0.997	-5.8	69.0	1	1.05	0.95				
	4656	1	0.0	0.0	0.0	0.0	2	0.89	6.08	69.0	1	1.05	0.95				
	6000	3	0.0	0.0	0.0	0.0	2	1.0	0.0	138.0	1	1.05	0.9				
	8000	1	3.502	1.547	0.0	0.0	22	1.0	9.28	6.6	1	1.05	0.9				
	8001	1	0.0	0.0	0.0	0.0	4	0.984	9.28	34.5	1	1.05	0.9				
	9001	3	0.0	0.0	0.0	0.0	12	0.97	-1.4	138.0	1	1.05	0.95				
];

%% generator data
%    bus    Pg    Qg    Qmax    Qmin    Vg    mBase    status    Pmax    Pmin    Pc1    Pc2    Qc1min    Qc1max    Qc2min    Qc2max    ramp_agc    ramp_10    ramp_30    ramp_q    apf
mpc.gen = [
	3187	7.51	3.4799999999999995	3.4799999999999995	-3.4000000000000004	1.02	100.0	1	99999.0	0.0															
	3140	2.08	1.23	1.23	-1.2	1.01	100.0	1	99999.0	0.0															
	3146	0.72	1.5	1.5	-1.5	1.0	100.0	1	99999.0	0.0															
	3142	5.01	2.16	2.16	-2.1	1.05	100.0	1	99999.0	0.0															
	3148	0.18	0.16	0.16	-0.1	1.0	100.0	1	99999.0	0.0															
	3110	7.22	3.0	3.0	-3.0	0.95	100.0	1	99999.0	0.0															
	3731	5.13	2.85	2.85	-2.8	1.03	100.0	1	99999.0	0.0															
	3166	0.0	0.0	0.0	0.0	1.04	100.0	1	99999.0	0.0															
	4100	0.0	0.0	0.0	0.0	0.951	100.0	1	99999.0	0.0															
	3188	4.69	3.72	3.72	-3.7000000000000006	1.05	100.0	1	99999.0	0.0															
	3189	7.64	3.66	3.66	-3.6000000000000005	1.0	100.0	1	99999.0	0.0															
	3240	0.0	0.0	0.0	0.0	1.0	100.0	1	99999.0	0.0															
	3345	117.10000000000001	6.668	99999.0	-9999.0	1.027	100.0	1	99999.0	0.0															
	245	85.5	0.1296	99999.0	-9999.0	1.0	100.0	1	99999.0	0.0															
	3401	3.5000000000000004	1.97	1.97	-1.9	0.965	100.0	1	99999.0	0.0															
	3141	8.13	-1.35	3.0	-3.0	0.894	100.0	1	99999.0	0.0															
	4051	1.51	2.01	2.01	-2.0	1.02	100.0	1	99999.0	0.0															
	4001	8.06	-0.546	3.3000000000000003	-3.3000000000000003	1.0	100.0	1	99999.0	0.0															
	3190	9.31	3.9	3.9	-3.9	1.0	100.0	1	99999.0	0.0															
	3124	0.0	0.0	0.0	0.0	1.0	100.0	1	99999.0	0.0															
	3120	6.819999999999999	2.7	2.7	-2.7	0.95	100.0	1	99999.0	0.0															
	3191	3.0	1.478	2.4	-2.4	1.0	100.0	1	99999.0	0.0															
	3151	6.98	3.65	3.65	-3.6000000000000005	1.0	100.0	1	99999.0	0.0															
	6000	0.0	0.0	99999.0	-9999.0	1.0	100.0	1	99999.0	0.0															
	9001	31.85	9.239	99999.0	-9999.0	0.97	100.0	1	99999.0	0.0															
	1704	1.8110000000000002	0.3356	99999.0	-9999.0	1.001	100.0	1	99999.0	0.0															
	3186	4.59	2.37	2.37	-2.3	1.02	100.0	1	99999.0	0.0															
];

%% branch data
%    f_bus    t_bus    r    x    b    rateA    rateB    rateC    ratio    angle    status    angmin    angmax
mpc.branch = [
	1704	1707	0.1198	0.2642	0.005600000000000001	44.0	44.0	44.0	0	0	1	-59.99999999999999	59.99999999999999								
	3330	4101	0.0225	0.065	0.01581	89.0	89.0	89.0	0	0	1	-59.99999999999999	59.99999999999999								
	3334	3335	0.09230000000000001	0.0949	0.0011899999999999999	23.0	23.0	23.0	0	0	1	-59.99999999999999	59.99999999999999								
	3380	3303	0.01405	0.029750000000000002	0.00685	95.0	95.0	95.0	0	0	1	-59.99999999999999	59.99999999999999								
	3325	3309	0.312	0.321	0.004030000000000001	23.0	23.0	23.0	0	0	1	-59.99999999999999	59.99999999999999								
	3304	3334	0.196	0.20170000000000002	0.00253	23.0	23.0	23.0	0	0	1	-59.99999999999999	59.99999999999999								
	4020	3307	0.025	0.065	0.01562	110.00000000000001	110.00000000000001	110.00000000000001	0	0	1	-59.99999999999999	59.99999999999999								
	3319	3732	0.07439	0.07653	0.00096	23.0	23.0	23.0	0	0	1	-59.99999999999999	59.99999999999999								
	3310	3313	0.0179	0.046799999999999994	0.01119	89.0	89.0	89.0	0	0	1	-59.99999999999999	59.99999999999999								
	3310	3342	0.022799999999999997	0.04914399999999999	0.01139	95.0	95.0	95.0	0	0	1	-59.99999999999999	59.99999999999999								
	3325	3348	0.092	0.095	0.0011899999999999999	23.0	23.0	23.0	0	0	1	-59.99999999999999	59.99999999999999								
	3304	4653	0.2418	0.2487	0.00312	23.0	23.0	23.0	0	0	1	-59.99999999999999	59.99999999999999								
	3300	245	0.0	1.0e-5	0.0	0.0	0.0	0.0	0	0	1	-59.99999999999999	59.99999999999999								
	3309	3308	0.1168	0.1202	0.00151	23.0	23.0	23.0	0	0	1	-59.99999999999999	59.99999999999999								
	3310	3317	0.0091	0.0239	0.005719999999999999	89.0	89.0	89.0	0	0	1	-59.99999999999999	59.99999999999999								
	3317	3332	0.024900000000000002	0.0652	0.015600000000000001	89.0	89.0	89.0	0	0	1	-59.99999999999999	59.99999999999999								
	4654	3312	0.0	0.001	0.0	0.0	0.0	0.0	0	0	0	-59.99999999999999	59.99999999999999								
	3338	3345	0.0	1.0e-5	0.0	0.0	0.0	0.0	0	0	1	-59.99999999999999	59.99999999999999								
	3342	3333	0.022799999999999997	0.04914399999999999	0.01139	95.0	95.0	95.0	0	0	1	-59.99999999999999	59.99999999999999								
	3330	3332	0.0364	0.09519999999999999	0.02275	89.0	89.0	89.0	0	0	1	-59.99999999999999	59.99999999999999								
	3338	3329	0.06839400000000001	0.17896	0.042800000000000005	110.00000000000001	110.00000000000001	110.00000000000001	0	0	1	-59.99999999999999	59.99999999999999								
	3308	3341	0.2077	0.2137	0.0028599999999999997	23.0	23.0	23.0	0	0	1	-59.99999999999999	59.99999999999999								
	3314	3328	0.17350000000000002	0.17850000000000002	0.0022400000000000002	23.0	23.0	23.0	0	0	1	-59.99999999999999	59.99999999999999								
	3339	3152	0.00466	0.012190000000000001	0.00292	89.0	89.0	89.0	0	0	1	-59.99999999999999	59.99999999999999								
	4656	3320	0.1367	0.1406	0.0017599999999999998	23.0	23.0	23.0	0	0	1	-59.99999999999999	59.99999999999999								
	3300	3301	0.0519	0.1009	0.025150000000000002	95.0	95.0	95.0	0	0	1	-59.99999999999999	59.99999999999999								
	3305	3337	0.0412	0.10779999999999999	0.025779999999999997	100.0	100.0	100.0	0	0	1	-59.99999999999999	59.99999999999999								
	3312	3311	0.0144	0.0362	0.0005899999999999999	23.0	23.0	23.0	0	0	1	-59.99999999999999	59.99999999999999								
	3338	3321	0.0060999999999999995	0.0159	0.00381	110.00000000000001	110.00000000000001	110.00000000000001	0	0	1	-59.99999999999999	59.99999999999999								
	3322	3762	0.1322	0.1361	0.0017100000000000001	23.0	23.0	23.0	0	0	1	-59.99999999999999	59.99999999999999								
	3325	3262	0.1495	0.15380000000000002	0.00193	23.0	23.0	23.0	0	0	1	-59.99999999999999	59.99999999999999								
	3335	3138	0.050199999999999995	0.051699999999999996	0.00065	23.0	23.0	23.0	0	0	1	-59.99999999999999	59.99999999999999								
	3331	3560	0.16920000000000002	0.177	0.0022500000000000003	23.0	23.0	23.0	0	0	1	-59.99999999999999	59.99999999999999								
	4655	3314	0.0	0.0001	0.0	23.0	23.0	23.0	0	0	0	-59.99999999999999	59.99999999999999								
	3336	3392	0.1764	0.1815	0.0	19.0	19.0	19.0	0	0	1	-59.99999999999999	59.99999999999999								
	3333	3303	0.029900000000000003	0.065	0.015069999999999998	110.00000000000001	110.00000000000001	110.00000000000001	0	0	1	-59.99999999999999	59.99999999999999								
	3350	3327	0.064	0.0659	0.00083	23.0	23.0	23.0	0	0	1	-59.99999999999999	59.99999999999999								
	3790	3164	0.125	0.1286	0.00161	23.0	23.0	23.0	0	0	1	-59.99999999999999	59.99999999999999								
	3348	3306	0.146	0.15	0.00189	23.0	23.0	23.0	0	0	1	-59.99999999999999	59.99999999999999								
	3313	3329	0.0443	0.1159	0.02773	89.0	89.0	89.0	0	0	1	-59.99999999999999	59.99999999999999								
	3732	3790	0.4617	0.47509999999999997	0.00596	23.0	23.0	23.0	0	0	1	-59.99999999999999	59.99999999999999								
	4653	3318	0.0	0.0001	0.0	23.0	23.0	23.0	0	0	0	-59.99999999999999	59.99999999999999								
	3318	3306	0.0584	0.0601	0.00075	23.0	23.0	23.0	0	0	1	-59.99999999999999	59.99999999999999								
	3339	3333	0.0046500000000000005	0.012190000000000001	0.00291	89.0	89.0	89.0	0	0	1	-59.99999999999999	59.99999999999999								
	3394	3338	0.009984	0.026126	0.00625	110.00000000000001	110.00000000000001	110.00000000000001	0	0	1	-59.99999999999999	59.99999999999999								
	3380	3305	0.01405	0.029750000000000002	0.00685	95.0	95.0	95.0	0	0	1	-59.99999999999999	59.99999999999999								
	3321	3323	0.005600000000000001	0.0146	0.0034999999999999996	89.0	89.0	89.0	0	0	1	-59.99999999999999	59.99999999999999								
	3315	3147	0.2384	0.24780000000000002	0.00319	23.0	23.0	23.0	0	0	1	-59.99999999999999	59.99999999999999								
	3349	3394	0.037642	0.098493	0.023559999999999998	110.00000000000001	110.00000000000001	110.00000000000001	0	0	1	-59.99999999999999	59.99999999999999								
	3970	3323	0.0161	0.0424	0.010129999999999998	89.0	89.0	89.0	0	0	1	-59.99999999999999	59.99999999999999								
	3300	3305	0.0696	0.1476	0.03376	95.0	95.0	95.0	0	0	1	-59.99999999999999	59.99999999999999								
	4020	3313	0.036000000000000004	0.094	0.0225	110.00000000000001	110.00000000000001	110.00000000000001	0	0	1	-59.99999999999999	59.99999999999999								
	3315	3314	0.0092	0.0095	0.00012	23.0	23.0	23.0	0	0	1	-59.99999999999999	59.99999999999999								
	3152	3600	0.00441	0.01154	0.0027600000000000003	89.0	89.0	89.0	0	0	1	-59.99999999999999	59.99999999999999								
	3304	3331	0.2663	0.27399999999999997	0.00344	23.0	23.0	23.0	0	0	1	-59.99999999999999	59.99999999999999								
	3302	4652	0.114	0.2322	0.00362	23.0	23.0	23.0	0	0	1	-59.99999999999999	59.99999999999999								
	3307	3337	0.0412	0.10779999999999999	0.025779999999999997	100.0	100.0	100.0	0	0	1	-59.99999999999999	59.99999999999999								
	3335	4654	0.25409	0.26141	0.00328	22.0	22.0	22.0	0	0	1	-59.99999999999999	59.99999999999999								
	3320	3322	0.2551	0.2625	0.00329	23.0	23.0	23.0	0	0	1	-59.99999999999999	59.99999999999999								
	3312	3336	0.0436	0.0449	0.0005600000000000001	23.0	23.0	23.0	0	0	1	-59.99999999999999	59.99999999999999								
	4652	3510	0.20350000000000001	0.21289999999999998	0.0027	23.0	23.0	23.0	0	0	1	-59.99999999999999	59.99999999999999								
	3301	3303	0.0252	0.0541	0.01276	95.0	95.0	95.0	0	0	1	-59.99999999999999	59.99999999999999								
	3319	3750	0.1661	0.1793	0.0022	23.0	23.0	23.0	0	0	1	-59.99999999999999	59.99999999999999								
	3326	3328	0.1481	0.1524	0.00191	23.0	23.0	23.0	0	0	1	-59.99999999999999	59.99999999999999								
	3336	4655	0.1164	0.1197	0.0015	23.0	23.0	23.0	0	0	1	-59.99999999999999	59.99999999999999								
	3308	3327	0.018600000000000002	0.046900000000000004	0.0007599999999999999	44.0	44.0	44.0	0	0	1	-59.99999999999999	59.99999999999999								
	3381	3350	0.067895	0.17082	0.0027700000000000003	110.00000000000001	110.00000000000001	110.00000000000001	0	0	1	-59.99999999999999	59.99999999999999								
	3252	3348	0.175	0.18	0.00226	55.00000000000001	55.00000000000001	55.00000000000001	0	0	1	-59.99999999999999	59.99999999999999								
	3290	3318	0.03828	0.5861	0.0	25.0	25.0	25.0	0.984	-0.0	1	-59.99999999999999	59.99999999999999								
	3251	3252	0.07002	0.8612000000000001	0.0	12.0	12.0	12.0	1.014	-0.0	1	-59.99999999999999	59.99999999999999								
	3311	3310	0.008100000000000001	0.1558	0.0	37.0	37.0	37.0	1.026	-0.0	1	-59.99999999999999	59.99999999999999								
	1708	1707	0.34412	2.9076999999999997	0.0	2.0	2.0	2.0	1.042	-0.0	1	-59.99999999999999	59.99999999999999								
	3391	3342	0.04884	0.7003	0.0	10.0	25.0	15.0	0.996	-0.0	1	-59.99999999999999	59.99999999999999								
	3410	3334	0.12736	1.1087	0.0	6.0	6.0	6.0	1.1	-0.0	1	-59.99999999999999	59.99999999999999								
	3393	3392	0.0892	1.1204	0.0	9.0	9.0	9.0	0.9822	-0.0	1	-59.99999999999999	59.99999999999999								
	3570	3560	0.11009000000000001	1.203	0.0	6.0	6.0	6.0	1.071	-0.0	1	-59.99999999999999	59.99999999999999								
	3210	3302	0.09208999999999999	0.5747	0.0	25.0	25.0	25.0	0.9712	-0.0	1	-59.99999999999999	59.99999999999999								
	3240	3304	0.058600000000000006	1.0499	0.0	10.0	10.0	10.0	0.956	-0.0	1	-59.99999999999999	59.99999999999999								
	3432	3314	0.09612	0.9351	0.0	12.0	12.0	12.0	0.9684	-0.0	1	-59.99999999999999	59.99999999999999								
	3730	3319	0.03589	0.5695	0.0	25.0	25.0	25.0	1.051	-0.0	1	-59.99999999999999	59.99999999999999								
	3480	3316	0.09612	0.9351	0.0	12.0	12.0	12.0	1.063	-0.0	1	-59.99999999999999	59.99999999999999								
	3340	3308	0.09034	0.5817	0.0	25.0	25.0	25.0	0.957	-0.0	1	-59.99999999999999	59.99999999999999								
	3201	3790	0.04123	0.7118000000000001	0.0	12.0	12.0	12.0	1.042	-0.0	1	-59.99999999999999	59.99999999999999								
	3142	3350	0.02696	0.6179	0.0	18.0	18.0	18.0	0.9	-0.0	1	-59.99999999999999	59.99999999999999								
	3645	3317	0.04397	0.7597	0.0	12.0	12.0	12.0	1.016	-0.0	1	-59.99999999999999	59.99999999999999								
	3190	3337	0.009000000000000001	0.24	0.0	43.0	43.0	43.0	1.0	-0.0	1	-59.99999999999999	59.99999999999999								
	3511	3510	0.06985999999999999	1.1926	0.0	10.0	10.0	10.0	1.09	-0.0	1	-59.99999999999999	59.99999999999999								
	3314	3313	0.008100000000000001	0.1558	0.0	37.0	37.0	37.0	1.026	-0.0	1	-59.99999999999999	59.99999999999999								
	3191	3339	0.057999999999999996	0.9315000000000001	0.0	9.0	9.0	9.0	1.0	-0.0	1	-59.99999999999999	59.99999999999999								
	3470	3316	0.1076	1.5563	0.0	6.0	6.0	6.0	1.0	-0.0	1	-59.99999999999999	59.99999999999999								
	3189	3333	0.015883	0.43489	0.0	27.0	27.0	27.0	1.0	-0.0	1	-59.99999999999999	59.99999999999999								
	3120	3304	0.021099999999999997	0.8933	0.0	10.0	10.0	10.0	0.932	-0.0	1	-59.99999999999999	59.99999999999999								
	3263	3262	0.14297	2.0457	0.0	5.0	5.0	5.0	1.053	-0.0	1	-59.99999999999999	59.99999999999999								
	3338	8000	0.08800000000000001	1.103	0.0	7.000000000000001	8.0	7.000000000000001	1.021	-0.0	1	-59.99999999999999	59.99999999999999								
	3316	3332	0.014150000000000001	0.2266	0.0	25.0	25.0	25.0	1.0	-0.0	1	-59.99999999999999	59.99999999999999								
	3305	3270	0.012	0.305	0.0	30.0	40.0	30.0	0.9936	-0.0	1	-59.99999999999999	59.99999999999999								
	3731	3732	0.028370000000000003	0.5075	0.0	16.0	16.0	16.0	0.976	-0.0	1	-59.99999999999999	59.99999999999999								
	3304	3303	0.04272	0.28111	0.0	25.0	25.0	25.0	0.985	-0.0	1	-59.99999999999999	59.99999999999999								
	3434	3328	0.09999000000000001	1.6025	0.0	6.0	6.0	6.0	1.009	-0.0	1	-59.99999999999999	59.99999999999999								
	3950	3320	0.09268000000000001	0.7342	0.0	12.0	12.0	12.0	0.9823	-0.0	1	-59.99999999999999	59.99999999999999								
	4100	4101	0.004035	0.22436	0.0	50.0	50.0	50.0	1.0	-0.0	1	-59.99999999999999	59.99999999999999								
	3343	3349	0.04397	0.7003	0.0	15.0	25.0	15.0	1.021	-0.0	1	-59.99999999999999	59.99999999999999								
	3780	3322	0.07811	0.7218000000000001	0.0	12.0	12.0	12.0	0.9772	-0.0	1	-59.99999999999999	59.99999999999999								
	3165	3840	1.9621000000000002	4.8012	0.0	2.0	2.0	2.0	0.952	-0.0	1	-59.99999999999999	59.99999999999999								
	3355	3350	0.0874	1.5521	0.0	7.000000000000001	7.000000000000001	7.000000000000001	0.9941	-0.0	1	-59.99999999999999	59.99999999999999								
	3302	3301	0.00729	0.1589	0.0	37.0	37.0	37.0	1.026	-0.0	1	-59.99999999999999	59.99999999999999								
	3308	3307	0.00852	0.16010000000000002	0.0	37.0	37.0	37.0	1.053	-0.0	1	-59.99999999999999	59.99999999999999								
	3141	3304	0.05114	0.7058	0.0	16.0	16.0	16.0	0.952	-0.0	1	-59.99999999999999	59.99999999999999								
	3145	3470	0.29179	2.9858	0.0	2.0	2.0	2.0	0.948	-0.0	1	-59.99999999999999	59.99999999999999								
	3186	3323	0.02338	0.6529	0.0	28.000000000000004	28.000000000000004	28.000000000000004	0.976	-0.0	1	-59.99999999999999	59.99999999999999								
	3124	3309	0.02464	0.6114999999999999	0.0	25.0	25.0	25.0	0.9884	-0.0	1	-59.99999999999999	59.99999999999999								
	3390	3310	0.012	0.305	0.0	30.0	40.0	30.0	0.9916	-0.0	1	-59.99999999999999	59.99999999999999								
	3763	3762	0.1414	1.3124	0.0	6.0	6.0	6.0	1.035	-0.0	1	-59.99999999999999	59.99999999999999								
	3770	3750	0.04884	0.7003	0.0	12.0	12.0	12.0	1.052	-0.0	1	-59.99999999999999	59.99999999999999								
	3450	3147	0.042190000000000005	0.9259999999999999	0.0	12.0	12.0	12.0	0.9822	-0.0	1	-59.99999999999999	59.99999999999999								
	3430	3315	0.09653	0.7014	0.0	12.0	12.0	12.0	0.9641	-0.0	1	-59.99999999999999	59.99999999999999								
	3322	3321	0.0144	0.248	0.0	25.0	25.0	25.0	0.9626	-0.0	1	-59.99999999999999	59.99999999999999								
	3148	3401	0.29762	2.2984999999999998	0.0	2.0	2.0	2.0	1.0	-0.0	1	-59.99999999999999	59.99999999999999								
	3139	3138	0.1032	0.9333	0.0	12.0	12.0	12.0	1.103	-0.0	1	-59.99999999999999	59.99999999999999								
	3140	3470	0.18031	1.8713	0.0	4.0	4.0	4.0	0.956	-0.0	1	-59.99999999999999	59.99999999999999								
	3167	3840	1.7077	4.882	0.0	2.0	2.0	2.0	1.052	-0.0	1	-59.99999999999999	59.99999999999999								
	3115	3240	0.0872	0.9397	0.0	6.0	6.0	6.0	0.976	-0.0	1	-59.99999999999999	59.99999999999999								
	8000	8001	0.35600000000000004	1.148	0.0	5.0	5.0	5.0	1.0	-0.0	1	-59.99999999999999	59.99999999999999								
	3188	3152	0.032549999999999996	0.8542000000000001	0.0	14.000000000000002	14.000000000000002	14.000000000000002	0.976	-0.0	1	-59.99999999999999	59.99999999999999								
	3143	3381	0.09090999999999999	1.1725	0.0	7.000000000000001	7.000000000000001	7.000000000000001	0.9944	-0.0	1	-59.99999999999999	59.99999999999999								
	3146	3401	0.2259	0.9309999999999999	0.0	6.0	6.0	6.0	1.0	-0.0	1	-59.99999999999999	59.99999999999999								
	4053	3329	0.08862	1.5353999999999999	0.0	6.0	6.0	6.0	0.953	-0.0	1	-59.99999999999999	59.99999999999999								
	4030	3326	0.09090999999999999	1.1725	0.0	7.000000000000001	7.000000000000001	7.000000000000001	0.9923	-0.0	1	-59.99999999999999	59.99999999999999								
	4001	3970	0.01815	0.48969999999999997	0.0	25.0	25.0	25.0	0.976	-0.0	1	-59.99999999999999	59.99999999999999								
	3151	3600	0.015560000000000001	0.4349	0.0	27.0	27.0	27.0	0.976	-0.0	1	-59.99999999999999	59.99999999999999								
	3319	9001	0.01369	0.1594	0.0	37.0	37.0	37.0	1.0	-0.0	1	-59.99999999999999	59.99999999999999								
	3401	3330	0.055990000000000005	0.795	0.0	10.0	10.0	10.0	0.952	-0.0	1	-59.99999999999999	59.99999999999999								
	3530	3331	0.0694	0.8331000000000001	0.0	12.0	12.0	12.0	1.083	-0.0	1	-59.99999999999999	59.99999999999999								
	3370	3312	0.05301	0.45990000000000003	0.0	25.0	25.0	25.0	0.953	-0.0	1	-59.99999999999999	59.99999999999999								
	3187	3327	0.01677	0.4338	0.0	27.0	27.0	27.0	0.976	-0.0	1	-59.99999999999999	59.99999999999999								
	3324	3300	0.06239	0.41369999999999996	0.0	15.0	15.0	15.0	1.0	-0.0	1	-59.99999999999999	59.99999999999999								
	3306	3305	0.00799	0.1531	0.0	37.0	37.0	37.0	1.053	-0.0	1	-59.99999999999999	59.99999999999999								
	3500	4652	0.16962	1.9247	0.0	5.0	5.0	5.0	0.9897	-0.0	1	-59.99999999999999	59.99999999999999								
	3840	3164	0.063	0.8676999999999999	0.0	12.0	12.0	12.0	1.019	-0.0	1	-59.99999999999999	59.99999999999999								
	3346	3341	0.16405999999999998	1.7503	0.0	6.0	6.0	6.0	0.9871	-0.0	1	-59.99999999999999	59.99999999999999								
	4600	3324	0.07119	0.7968000000000001	0.0	12.0	12.0	12.0	0.9764	-0.0	1	-59.99999999999999	59.99999999999999								
	4051	3326	0.04202	0.8671	0.0	8.0	8.0	8.0	1.0	-0.0	1	-59.99999999999999	59.99999999999999								
	3166	3840	0.05393	1.2055	0.0	6.0	6.0	6.0	0.952	-0.0	1	-59.99999999999999	59.99999999999999								
	3110	3240	0.0872	0.9397	0.0	6.0	6.0	6.0	0.976	-0.0	1	-59.99999999999999	59.99999999999999								
];

%%-----  OPF Data  -----%%
%% cost data
%    1    startup    shutdown    n    x1    y1    ...    xn    yn
%    2    startup    shutdown    n    c(n-1)    ...    c0
mpc.gencost = [
	2	0.0	0.0	2	1.0	0.0
	2	0.0	0.0	2	1.0	0.0
	2	0.0	0.0	2	1.0	0.0
	2	0.0	0.0	2	1.0	0.0
	2	0.0	0.0	2	1.0	0.0
	2	0.0	0.0	2	1.0	0.0
	2	0.0	0.0	2	1.0	0.0
	2	0.0	0.0	2	1.0	0.0
	2	0.0	0.0	2	1.0	0.0
	2	0.0	0.0	2	1.0	0.0
	2	0.0	0.0	2	1.0	0.0
	2	0.0	0.0	2	1.0	0.0
	2	0.0	0.0	2	1.0	0.0
	2	0.0	0.0	2	1.0	0.0
	2	0.0	0.0	2	1.0	0.0
	2	0.0	0.0	2	1.0	0.0
	2	0.0	0.0	2	1.0	0.0
	2	0.0	0.0	2	1.0	0.0
	2	0.0	0.0	2	1.0	0.0
	2	0.0	0.0	2	1.0	0.0
	2	0.0	0.0	2	1.0	0.0
	2	0.0	0.0	2	1.0	0.0
	2	0.0	0.0	2	1.0	0.0
	2	0.0	0.0	2	1.0	0.0
	2	0.0	0.0	2	1.0	0.0
	2	0.0	0.0	2	1.0	0.0
	2	0.0	0.0	2	1.0	0.0
];

%% bus names
mpc.bus_name = {
	'INT_LIGHT   '
	'CPO----69   '
	'SUM----69   '
	'SUM--11.4   '
	'NUM-------G1'
	'NUM-------G2'
	'NUM-------G3'
	'MRE(1)--11.4'
	'RDR-------69'
	'RDR-----11.4'
	'UTE-------G1'
	'NUM-------G4'
	'UGL--------G'
	'MRU----11.4 '
	'UTE-------G2'
	'UGY--------G'
	'CBA-------69'
	'UAN--------G'
	'UPT--------G'
	'UPL------138'
	'UNB-------69'
	'UNB-------G1'
	'UNB-------G2'
	'UNB-----G3-4'
	'UGR--------G'
	'UEC--------G'
	'UPL--------G'
	'UIB3-------G'
	'UBR--------G'
	'UZT--------G'
	'SAM-----11.4'
	'LPD-----11.4'
	'NUM-------24'
	'MRI-------22'
	'MRI-------69'
	'LRJ-------69'
	'LRJ-----11.4'
	'CTZ(2)----22'
	'CTZ(1)----22'
	'ALP------138'
	'LPD------138'
	'LPD-------69'
	'NUM------138'
	'NUM-------69'
	'CTZ(2)---138'
	'CTZ(2)----69'
	'MRE(2)---138'
	'MRE(2)----69'
	'MRE(1)----69'
	'UBA(2)---138'
	'UBA(2)----69'
	'UBA(1)----69'
	'VRB(2)---138'
	'VRB(2)----69'
	'VRB(1)----69'
	'UTE-------69'
	'TCT------138'
	'CTZ(1)----69'
	'MAU-------69'
	'REA-------69'
	'MAO------138'
	'MAO-------69'
	'UGR------138'
	'ALP-------69'
	'LRJ(DERIV)69'
	'UER-------69'
	'UEC-------69'
	'GCM-------69'
	'SMA------138'
	'UGY------138'
	'SJN-------69'
	'UTE------138'
	'UTF------138'
	'ASD-------69'
	'RDR(DER)--69'
	'DVN-DERV-69 '
	'UBR---138   '
	'P.FIALHO-138'
	'UZT------138'
	'MRE(2)--11.4'
	'ENP ------69'
	'UBA3-----138'
	'MAU2---11.4 '
	'RB_PFIALHO  '
	'ENP ----11.4'
	'MRI(DERIV)69'
	'MAU2---138  '
	'UGL-------69'
	'UGL-----11.4'
	'UBA(1)--11.4'
	'FIC_NUM_CTZ2'
	'MRU------69 '
	'UBA(2)--11.4'
	'UBA(3)--11.4'
	'DVN-------69'
	'DVN-----11.4'
	'SAMARCO  138'
	'UGY-------25'
	'ASD-----11.4'
	'VRB(1)--11.4'
	'VRB(2)--11.4'
	'GCM----11.4 '
	'CBA-----11.4'
	'UTE-------22'
	'UTE-----11.4'
	'RCO-----11.4'
	'PRT-------69'
	'PRT------22 '
	'SJN-----11.4'
	'RIN-------69'
	'RIN----11.4 '
	'UPT------138'
	'TCT-----11.4'
	'MAU-----11.4'
	'UBB--------G'
	'UBB-------69'
	'MAM-------69'
	'STM-------69'
	'STM-----11.4'
	'MAM-----11.4'
	'MAO-----11.4'
	'SAM-------69'
	'UNB-------22'
	'REA-----11.4'
	'UEB------138'
	'UEB--------G'
	'VOT_CBA--138'
	'UER-----11.4'
	'UER--------G'
	'SMA----11.4 '
	'UTJF-------G'
	'JFORA----138'
	'ALP-----11.4'
	'RCO-------69'
	'CTZ1-FIC--69'
	'UBA1-FIC--69'
	'VRB2-FIC--69'
	'MAU-FIC---69'
	'CEMIG       '
	'PAO-----11.4'
	'SAMARCO-34.5'
	'MAU------138'
};

